/*---------------------------------------------------------------------------*\
| =========                 |                                                 |
| \\      /  F ield         | OpenFOAM: The Open Source CFD Toolbox           |
|  \\    /   O peration     | Version:  2.1.1                                 |
|   \\  /    A nd           | Web:      www.OpenFOAM.org                      |
|    \\/     M anipulation  |                                                 |
\*---------------------------------------------------------------------------*/
Build  : 2.1.1-221db2718bbb
Exec   : decomposePar
Date   : Apr 10 2018
Time   : 13:32:28
Host   : "tom-VirtualBox"
PID    : 3383
Case   : /home/tom/GitHub/thrombus-code/SnappyHexSteadyLaminarTube
nProcs : 1
sigFpe : Enabling floating point exception trapping (FOAM_SIGFPE).
fileModificationChecking : Monitoring run-time modified files using timeStampMaster
allowSystemOperations : Disallowing user-supplied system call operations

// * * * * * * * * * * * * * * * * * * * * * * * * * * * * * * * * * * * * * //
Create time

Create mesh

Calculating distribution of cells
Selecting decompositionMethod simple

Finished decomposition in 0.15 s

Calculating original mesh data

Distributing cells to processors

Distributing faces to processors

Distributing points to processors

Constructing processor meshes

Processor 0
    Number of cells = 48000
    Number of faces shared with processor 1 = 2400
    Number of faces shared with processor 2 = 2400
    Number of processor patches = 2
    Number of processor faces = 4800
    Number of boundary faces = 5600

Processor 1
    Number of cells = 48000
    Number of faces shared with processor 0 = 2400
    Number of faces shared with processor 3 = 2400
    Number of processor patches = 2
    Number of processor faces = 4800
    Number of boundary faces = 5600

Processor 2
    Number of cells = 48000
    Number of faces shared with processor 0 = 2400
    Number of faces shared with processor 3 = 2400
    Number of processor patches = 2
    Number of processor faces = 4800
    Number of boundary faces = 5600

Processor 3
    Number of cells = 48000
    Number of faces shared with processor 1 = 2400
    Number of faces shared with processor 2 = 2400
    Number of processor patches = 2
    Number of processor faces = 4800
    Number of boundary faces = 5600

Number of processor faces = 9600
Max number of cells = 48000 (0% above average 48000)
Max number of processor patches = 2 (0% above average 2)
Max number of faces between processors = 4800 (0% above average 4800)

Time = 0
/*---------------------------------------------------------------------------*\
| =========                 |                                                 |
| \\      /  F ield         | OpenFOAM: The Open Source CFD Toolbox           |
|  \\    /   O peration     | Version:  2.1.1                                 |
|   \\  /    A nd           | Web:      www.OpenFOAM.org                      |
|    \\/     M anipulation  |                                                 |
\*---------------------------------------------------------------------------*/
Build  : 2.1.1-221db2718bbb
Exec   : snappyHexMesh -overwrite -parallel
Date   : Apr 10 2018
Time   : 13:32:31
Host   : "tom-VirtualBox"
PID    : 3387
Case   : /home/tom/GitHub/thrombus-code/SnappyHexSteadyLaminarTube
nProcs : 4
Slaves : 
3
(
"tom-VirtualBox.3388"
"tom-VirtualBox.3389"
"tom-VirtualBox.3390"
)

Pstream initialized with:
    floatTransfer     : 0
    nProcsSimpleSum   : 0
    commsType         : nonBlocking
sigFpe : Enabling floating point exception trapping (FOAM_SIGFPE).
fileModificationChecking : Monitoring run-time modified files using timeStampMaster
allowSystemOperations : Disallowing user-supplied system call operations

// * * * * * * * * * * * * * * * * * * * * * * * * * * * * * * * * * * * * * //
Create time

Create mesh for time = 0

Read mesh in = 0.41 s

Overall mesh bounding box  : (-0.002 -0.002 -0.006) (0.002 0.002 0.006)
Relative tolerance         : 1e-06
Absolute matching distance : 1.32664991614216e-08

Reading refinement surfaces.
Read refinement surfaces in = 0 s

Reading refinement shells.
Read refinement shells in = 0 s

Setting refinement level of surface to be consistent with shells.
Checked shell refinement in = 0 s

Reading features.
Read features in = 0 s


Determining initial surface intersections
-----------------------------------------

Edge intersection testing:
    Number of edges             : 587200
    Number of edges to retest   : 587200
    Number of intersected edges : 13416
Calculated surface intersections in = 0.46 s

Initial mesh : cells:192000  faces:587200  points:203401
Cells per refinement level:
    0	192000

Adding patches for surface regions
----------------------------------

Patch	Type	Region
-----	----	------
inlet:

6	wall	inlet_inlet

outlet:

7	wall	outlet_outlet

wall:

8	wall	wall_wall

Added patches in = 0.05 s

Selecting decompositionMethod simple

Refinement phase
----------------

[1] Found point (0 0 0) in cell 23980 on processor 1
[3] Found point (0 0 0) in cell 24000 on processor 3
[0] Found point (0 0 0) in cell 23999 on processor 0
[2] Found point (0 0 0) in cell 23619 on processor 2

Surface refinement iteration 0
------------------------------

Marked for refinement due to surface intersection : 19864 cells.
Marked for refinement due to curvature/regions    : 0 cells.
Determined cells to refine in = 0.1 s
Selected for refinement : 19864 cells (out of 192000)
Edge intersection testing:
    Number of edges             : 1044628
    Number of edges to retest   : 589652
    Number of intersected edges : 53640
Refined mesh in = 0.91 s
After refinement surface refinement iteration 0 : cells:331048  faces:1044628  points:382745
Cells per refinement level:
    0	172136
    1	158912
Skipping balancing since max unbalance 0 is less than allowable 0

Surface refinement iteration 1
------------------------------

Marked for refinement due to surface intersection : 48 cells.
Marked for refinement due to curvature/regions    : 1072 cells.
Determined cells to refine in = 0.13 s
Selected for refinement : 1248 cells (out of 331048)
Edge intersection testing:
    Number of edges             : 1076524
    Number of edges to retest   : 49240
    Number of intersected edges : 57604
Refined mesh in = 0.73 s
After refinement surface refinement iteration 1 : cells:339784  faces:1076524  points:397873
Cells per refinement level:
    0	171960
    1	159248
    2	8576
Balanced mesh in = 1.37 s
After balancing surface refinement iteration 1 : cells:339784  faces:1076524  points:397873
Cells per refinement level:
    0	171960
    1	159248
    2	8576

Surface refinement iteration 2
------------------------------

Marked for refinement due to surface intersection : 0 cells.
Marked for refinement due to curvature/regions    : 90 cells.
Determined cells to refine in = 0.11 s
Selected for refinement : 114 cells (out of 339784)
Edge intersection testing:
    Number of edges             : 1079110
    Number of edges to retest   : 9332
    Number of intersected edges : 57572
Refined mesh in = 0.61 s
After refinement surface refinement iteration 2 : cells:340582  faces:1079110  points:398853
Cells per refinement level:
    0	171936
    1	159350
    2	9296
Balanced mesh in = 1.19 s
After balancing surface refinement iteration 2 : cells:340582  faces:1079110  points:398853
Cells per refinement level:
    0	171936
    1	159350
    2	9296

Surface refinement iteration 3
------------------------------

Marked for refinement due to surface intersection : 0 cells.
Marked for refinement due to curvature/regions    : 0 cells.
Determined cells to refine in = 0.08 s
Selected for refinement : 0 cells (out of 340582)
Stopping refining since too few cells selected.


Removing mesh beyond surface intersections
------------------------------------------

Found point (0 0 0) in cell 23999 in global region 1 out of 2 regions.
Keeping all cells in region 1 containing point (0 0 0)
Selected for keeping : 195666 cells.
Edge intersection testing:
    Number of edges             : 643508
    Number of edges to retest   : 56758
    Number of intersected edges : 57572

Shell refinement iteration 0
----------------------------

Marked for refinement due to refinement shells    : 0 cells.
Determined cells to refine in = 0.68 s
Selected for internal refinement : 810 cells (out of 195666)
Edge intersection testing:
    Number of edges             : 662042
    Number of edges to retest   : 51242
    Number of intersected edges : 58486
Refined mesh in = 0.46 s
After refinement shell refinement iteration 0 : cells:201336  faces:662042  points:260061
Cells per refinement level:
    0	62672
    1	124974
    2	13690
Balanced mesh in = 1.04 s
After balancing shell refinement iteration 0 : cells:201336  faces:662042  points:260061
Cells per refinement level:
    0	62672
    1	124974
    2	13690

Shell refinement iteration 1
----------------------------

Marked for refinement due to refinement shells    : 0 cells.
Determined cells to refine in = 0.1 s
Selected for internal refinement : 0 cells (out of 201336)
Stopping refining since too few cells selected.


Splitting mesh at surface intersections
---------------------------------------

Introducing baffles for 58486 faces that are intersected by the surface.

Edge intersection testing:
    Number of edges             : 720528
    Number of edges to retest   : 377712
    Number of intersected edges : 116544
Created baffles in = 0.34 s


After introducing baffles : cells:201336  faces:720528  points:260061
Cells per refinement level:
    0	62672
    1	124974
    2	13690

Introducing baffles to block off problem cells
----------------------------------------------

markFacesOnProblemCells : marked 120588 additional internal faces to be converted into baffles.
Analyzed problem cells in = 0.26 s


Introducing baffles to delete problem cells.

Edge intersection testing:
    Number of edges             : 841116
    Number of edges to retest   : 363119
    Number of intersected edges : 116544
Created baffles in = 0.46 s


After introducing baffles : cells:201336  faces:841116  points:261107
Cells per refinement level:
    0	62672
    1	124974
    2	13690

Remove unreachable sections of mesh
-----------------------------------

Keeping all cells in region 6 containing point (0 0 0)
Selected for keeping : 141304 cells.
Edge intersection testing:
    Number of edges             : 473916
    Number of edges to retest   : 0
    Number of intersected edges : 58286
Split mesh in = 0.41 s


After subsetting : cells:141304  faces:473916  points:192075
Cells per refinement level:
    0	61136
    1	74072
    2	6096

Handling cells with snap problems
---------------------------------

Introducing baffles for 58286 faces that are intersected by the surface.

Edge intersection testing:
    Number of edges             : 473916
    Number of edges to retest   : 185008
    Number of intersected edges : 58286
Created baffles in = 0.3 s


After introducing baffles : cells:141304  faces:473916  points:192075
Cells per refinement level:
    0	61136
    1	74072
    2	6096

Introducing baffles to block off problem cells
----------------------------------------------

markFacesOnProblemCells : marked 0 additional internal faces to be converted into baffles.
Analyzed problem cells in = 0.19 s


Introducing baffles to delete problem cells.

Edge intersection testing:
    Number of edges             : 473916
    Number of edges to retest   : 0
    Number of intersected edges : 58286
Created baffles in = 0.18 s


After introducing baffles : cells:141304  faces:473916  points:192075
Cells per refinement level:
    0	61136
    1	74072
    2	6096

Remove unreachable sections of mesh
-----------------------------------

Keeping all cells in region 0 containing point (0 0 0)
Selected for keeping : 141304 cells.
Edge intersection testing:
    Number of edges             : 473916
    Number of edges to retest   : 0
    Number of intersected edges : 58286
Split mesh in = 0.26 s


After subsetting : cells:141304  faces:473916  points:192075
Cells per refinement level:
    0	61136
    1	74072
    2	6096
dupNonManifoldPoints : Found : 0 non-manifold points (out of 200604)
Edge intersection testing:
    Number of edges             : 473916
    Number of edges to retest   : 0
    Number of intersected edges : 58286
getDuplicateFaces : found 0 pairs of duplicate faces.

Detected unsplittable baffles : 0

Merge refined boundary faces
----------------------------

Merging 120 sets of faces.

Edge intersection testing:
    Number of edges             : 473788
    Number of edges to retest   : 934
    Number of intersected edges : 58154

Undo iteration 0
----------------
Checking faces in error :
    non-orthogonality >  65 degrees                        : 0
    faces with face pyramid volume < 1e-13                 : 298624
    faces with face-decomposition tet quality < 1e-30      : 0
    faces with concavity >  80 degrees                     : 0
    faces with skewness >   4 (internal) or  20 (boundary) : 0
    faces with interpolation weights (0..1)  <  0.05       : 0
    faces with volume ratio of neighbour cells <  0.01     : 0
    faces with face twist <  0.05                          : 0
    faces on cells with determinant < 0.001                : 0
Masters that need to be restored:120
Edge intersection testing:
    Number of edges             : 473916
    Number of edges to retest   : 1062
    Number of intersected edges : 58286


Undo iteration 1
----------------
Checking faces in error :
    non-orthogonality >  65 degrees                        : 0
    faces with face pyramid volume < 1e-13                 : 298752
    faces with face-decomposition tet quality < 1e-30      : 0
    faces with concavity >  80 degrees                     : 0
    faces with skewness >   4 (internal) or  20 (boundary) : 0
    faces with interpolation weights (0..1)  <  0.05       : 0
    faces with volume ratio of neighbour cells <  0.01     : 0
    faces with face twist <  0.05                          : 0
    faces on cells with determinant < 0.001                : 0
Masters that need to be restored:0

Merging all points on surface that
- are used by only two boundary faces and
- make an angle with a cosine of more than 0.7071067811865476.

No straight edges simplified and no points removed ...

Doing final balancing
---------------------

Found 0 zoned faces to keep together.
Refined mesh : cells:141304  faces:473916  points:192075
Cells per refinement level:
    0	61136
    1	74072
    2	6096
Writing mesh to time constant
Wrote mesh in = 2.6 s.
Mesh refined in = 12.51 s.

Morphing phase
--------------

Snapping to features in 10 iterations ...
Constructing mesh displacer ...
Using mesh parameters 
{
    maxNonOrtho     65;
    maxBoundarySkewness 20;
    maxInternalSkewness 4;
    maxConcave      80;
    minVol          1e-13;
    minTetQuality   1e-30;
    minArea         -1;
    minTwist        0.05;
    minDeterminant  0.001;
    minFaceWeight   0.05;
    minVolRatio     0.01;
    minTriangleTwist -1;
    nSmoothScale    4;
    errorReduction  0.75;
    relaxed
    {
        maxNonOrtho     75;
    }
}


Checking initial mesh ...
Checking faces in error :
    non-orthogonality >  65 degrees                        : 0
    faces with face pyramid volume < 1e-13                 : 298767
    faces with face-decomposition tet quality < 1e-30      : 0
    faces with concavity >  80 degrees                     : 0
    faces with skewness >   4 (internal) or  20 (boundary) : 0
    faces with interpolation weights (0..1)  <  0.05       : 0
    faces with volume ratio of neighbour cells <  0.01     : 0
    faces with face twist <  0.05                          : 0
    faces on cells with determinant < 0.001                : 0
Detected 298767 illegal faces (concave, zero area or negative cell pyramid volume)
Checked initial mesh in = 0.44 s


Smoothing patch points ...
Smoothing iteration 0
Found 0 non-mainfold point(s).

Scaling iteration 0
Moving mesh using diplacement scaling : min:1  max:1
Checking faces in error :
    non-orthogonality >  65 degrees                        : 0
    faces with face pyramid volume < 1e-13                 : 298767
    faces with face-decomposition tet quality < 1e-30      : 0
    faces with concavity >  80 degrees                     : 0
    faces with skewness >   4 (internal) or  20 (boundary) : 0
    faces with interpolation weights (0..1)  <  0.05       : 0
    faces with volume ratio of neighbour cells <  0.01     : 0
    faces with face twist <  0.05                          : 0
    faces on cells with determinant < 0.001                : 0
Successfully moved mesh

Smoothing iteration 1
Found 0 non-mainfold point(s).

Scaling iteration 0
Moving mesh using diplacement scaling : min:1  max:1
Checking faces in error :
    non-orthogonality >  65 degrees                        : 0
    faces with face pyramid volume < 1e-13                 : 298767
    faces with face-decomposition tet quality < 1e-30      : 0
    faces with concavity >  80 degrees                     : 0
    faces with skewness >   4 (internal) or  20 (boundary) : 0
    faces with interpolation weights (0..1)  <  0.05       : 0
    faces with volume ratio of neighbour cells <  0.01     : 0
    faces with face twist <  0.05                          : 0
    faces on cells with determinant < 0.001                : 0
Successfully moved mesh

Smoothing iteration 2
Found 0 non-mainfold point(s).

Scaling iteration 0
Moving mesh using diplacement scaling : min:1  max:1
Checking faces in error :
    non-orthogonality >  65 degrees                        : 0
    faces with face pyramid volume < 1e-13                 : 298767
    faces with face-decomposition tet quality < 1e-30      : 0
    faces with concavity >  80 degrees                     : 0
    faces with skewness >   4 (internal) or  20 (boundary) : 0
    faces with interpolation weights (0..1)  <  0.05       : 0
    faces with volume ratio of neighbour cells <  0.01     : 0
    faces with face twist <  0.05                          : 0
    faces on cells with determinant < 0.001                : 0
Successfully moved mesh

Patch points smoothed in = 1.12 s



Morph iteration 0
-----------------
Calculating patchDisplacement as distance to nearest surface point ...
Wanted displacement : average:6.574692723037539e-06 min:9.368548459666052e-11 max:1.985339349115573e-05
Calculated surface displacement in = 0.02 s


Calculating patchDisplacement as distance to nearest surface point ...
Stringing feature edges : changed 0 points
Attraction:
     linear   : max:(1.895688783133849e-05 1.895688783133827e-05 1.408012199811872e-05) avg:(-7.361260985347011e-09 -1.618002340505026e-08 6.328640806586074e-09)
     feature  : max:(0 0 0) avg:(0 0 0)
Feature analysis : total points:60154 attraction to :
    feature point   : 0
    feature edge    : 0
    nearest surface : 60154 (rest)

--> FOAM Warning : Displacement (1.044504014760019e-08 1.656196346458768e-09 -3.107686737634565e-09) at mesh point 23921 coord (-9.512524122179674e-05 -0.001493765706297306 -0.004844918656124531) points through the surrounding patch faces
Smoothing displacement ...
Iteration 0
Iteration 10
Iteration 20
Iteration 30
Iteration 40
Iteration 50
Iteration 60
Iteration 70
Iteration 80
Iteration 90
Iteration 100
Iteration 110
Iteration 120
Iteration 130
Iteration 140
Iteration 150
Iteration 160
Iteration 170
Iteration 180
Iteration 190
Iteration 200
Iteration 210
Iteration 220
Iteration 230
Iteration 240
Iteration 250
Iteration 260
Iteration 270
Iteration 280
Iteration 290
Displacement smoothed in = 1.73 s


Moving mesh ...

Iteration 0
Moving mesh using diplacement scaling : min:1  max:1
Checking faces in error :
    non-orthogonality >  65 degrees                        : 0
    faces with face pyramid volume < 1e-13                 : 298767
    faces with face-decomposition tet quality < 1e-30      : 0
    faces with concavity >  80 degrees                     : 0
    faces with skewness >   4 (internal) or  20 (boundary) : 0
    faces with interpolation weights (0..1)  <  0.05       : 0
    faces with volume ratio of neighbour cells <  0.01     : 0
    faces with face twist <  0.05                          : 0
    faces on cells with determinant < 0.001                : 0
Successfully moved mesh
Moved mesh in = 0.37 s



Morph iteration 1
-----------------
Calculating patchDisplacement as distance to nearest surface point ...
Wanted displacement : average:6.257268065871645e-06 min:1.99272320285421e-09 max:1.902738394985454e-05
Calculated surface displacement in = 0.01 s


Calculating patchDisplacement as distance to nearest surface point ...
Stringing feature edges : changed 0 points
Attraction:
     linear   : max:(1.819065103832109e-05 1.819013384559819e-05 1.376897302777461e-05) avg:(-6.463600596951267e-09 -1.481593480226307e-08 5.493131634719557e-09)
     feature  : max:(0 0 0) avg:(0 0 0)
Feature analysis : total points:60154 attraction to :
    feature point   : 0
    feature edge    : 0
    nearest surface : 60154 (rest)

--> FOAM Warning : Displacement (2.714014785392449e-08 4.612159489984863e-08 -3.359298138308097e-08) at mesh point 262 coord (-9.419174116566657e-05 -0.001494815549127408 -0.004895862752447401) points through the surrounding patch faces
Smoothing displacement ...
Iteration 0
Iteration 10
Iteration 20
Iteration 30
Iteration 40
Iteration 50
Iteration 60
Iteration 70
Iteration 80
Iteration 90
Iteration 100
Iteration 110
Iteration 120
Iteration 130
Iteration 140
Iteration 150
Iteration 160
Iteration 170
Iteration 180
Iteration 190
Iteration 200
Iteration 210
Iteration 220
Iteration 230
Iteration 240
Iteration 250
Iteration 260
Iteration 270
Iteration 280
Iteration 290
Displacement smoothed in = 1.69 s


Moving mesh ...

Iteration 0
Moving mesh using diplacement scaling : min:1  max:1
Checking faces in error :
    non-orthogonality >  65 degrees                        : 0
    faces with face pyramid volume < 1e-13                 : 298767
    faces with face-decomposition tet quality < 1e-30      : 0
    faces with concavity >  80 degrees                     : 0
    faces with skewness >   4 (internal) or  20 (boundary) : 0
    faces with interpolation weights (0..1)  <  0.05       : 0
    faces with volume ratio of neighbour cells <  0.01     : 0
    faces with face twist <  0.05                          : 0
    faces on cells with determinant < 0.001                : 0
Successfully moved mesh
Moved mesh in = 0.36 s



Morph iteration 2
-----------------
Calculating patchDisplacement as distance to nearest surface point ...
Wanted displacement : average:5.607152682842926e-06 min:1.297942425863978e-08 max:1.727683116643887e-05
Calculated surface displacement in = 0.02 s


Calculating patchDisplacement as distance to nearest surface point ...
Stringing feature edges : changed 0 points
Attraction:
     linear   : max:(1.65328753191044e-05 1.653243368164039e-05 1.313365983193846e-05) avg:(-5.275272018265069e-09 -1.314460307465698e-08 4.052564730403914e-09)
     feature  : max:(0 0 0) avg:(0 0 0)
Feature analysis : total points:60154 attraction to :
    feature point   : 0
    feature edge    : 0
    nearest surface : 60154 (rest)

--> FOAM Warning : Displacement (3.960985214938797e-08 4.072660143042528e-08 -2.33796593896353e-07) at mesh point 47568 coord (-9.740714780879051e-05 -0.001493503794656859 -0.004972505282057263) points through the surrounding patch faces
Smoothing displacement ...
Iteration 0
Iteration 10
Iteration 20
Iteration 30
Iteration 40
Iteration 50
Iteration 60
Iteration 70
Iteration 80
Iteration 90
Iteration 100
Iteration 110
Iteration 120
Iteration 130
Iteration 140
Iteration 150
Iteration 160
Iteration 170
Iteration 180
Iteration 190
Iteration 200
Iteration 210
Iteration 220
Iteration 230
Iteration 240
Iteration 250
Iteration 260
Iteration 270
Iteration 280
Iteration 290
Displacement smoothed in = 1.8 s


Moving mesh ...

Iteration 0
Moving mesh using diplacement scaling : min:1  max:1
Checking faces in error :
    non-orthogonality >  65 degrees                        : 0
    faces with face pyramid volume < 1e-13                 : 298767
    faces with face-decomposition tet quality < 1e-30      : 0
    faces with concavity >  80 degrees                     : 0
    faces with skewness >   4 (internal) or  20 (boundary) : 0
    faces with interpolation weights (0..1)  <  0.05       : 0
    faces with volume ratio of neighbour cells <  0.01     : 0
    faces with face twist <  0.05                          : 0
    faces on cells with determinant < 0.001                : 0
Successfully moved mesh
Moved mesh in = 0.36 s



Morph iteration 3
-----------------
Calculating patchDisplacement as distance to nearest surface point ...
Wanted displacement : average:4.682665473850262e-06 min:6.50293344352196e-11 max:1.465302205348763e-05
Calculated surface displacement in = 0.02 s


Calculating patchDisplacement as distance to nearest surface point ...
Stringing feature edges : changed 0 points
Attraction:
     linear   : max:(1.402204978011214e-05 1.402170542460167e-05 1.219254989925922e-05) avg:(-3.819120520225358e-09 -1.084639738979106e-08 2.439443050377934e-09)
     feature  : max:(0 0 0) avg:(0 0 0)
Feature analysis : total points:60154 attraction to :
    feature point   : 0
    feature edge    : 0
    nearest surface : 60154 (rest)

--> FOAM Warning : Displacement (2.587741113949316e-08 1.755940422154116e-07 -1.655269238230421e-07) at mesh point 48806 coord (-7.471041421178725e-05 -0.001494759227829069 -0.004972958265149611) points through the surrounding patch faces
Smoothing displacement ...
Iteration 0
Iteration 10
Iteration 20
Iteration 30
Iteration 40
Iteration 50
Iteration 60
Iteration 70
Iteration 80
Iteration 90
Iteration 100
Iteration 110
Iteration 120
Iteration 130
Iteration 140
Iteration 150
Iteration 160
Iteration 170
Iteration 180
Iteration 190
Iteration 200
Iteration 210
Iteration 220
Iteration 230
Iteration 240
Iteration 250
Iteration 260
Iteration 270
Iteration 280
Iteration 290
Displacement smoothed in = 1.68 s


Moving mesh ...

Iteration 0
Moving mesh using diplacement scaling : min:1  max:1
Checking faces in error :
    non-orthogonality >  65 degrees                        : 0
    faces with face pyramid volume < 1e-13                 : 298767
    faces with face-decomposition tet quality < 1e-30      : 0
    faces with concavity >  80 degrees                     : 0
    faces with skewness >   4 (internal) or  20 (boundary) : 0
    faces with interpolation weights (0..1)  <  0.05       : 0
    faces with volume ratio of neighbour cells <  0.01     : 0
    faces with face twist <  0.05                          : 0
    faces on cells with determinant < 0.001                : 0
Successfully moved mesh
Moved mesh in = 0.37 s



Morph iteration 4
-----------------
Calculating patchDisplacement as distance to nearest surface point ...
Wanted displacement : average:3.602041877795278e-06 min:1.76693691936226e-09 max:1.141244564161353e-05
Calculated surface displacement in = 0.01 s


Calculating patchDisplacement as distance to nearest surface point ...
Stringing feature edges : changed 0 points
Attraction:
     linear   : max:(1.092101225904957e-05 1.09209841284829e-05 8.726216683179779e-06) avg:(-2.414642093677589e-09 -8.179318666196977e-09 3.723593091646408e-10)
     feature  : max:(0 0 0) avg:(0 0 0)
Feature analysis : total points:60154 attraction to :
    feature point   : 0
    feature edge    : 0
    nearest surface : 60154 (rest)

--> FOAM Warning : Displacement (3.735178932255704e-08 3.590987235994244e-07 -7.960546026822768e-08) at mesh point 48806 coord (-7.468453680064775e-05 -0.001494583633786854 -0.004973123792073434) points through the surrounding patch faces
Smoothing displacement ...
Iteration 0
Iteration 10
Iteration 20
Iteration 30
Iteration 40
Iteration 50
Iteration 60
Iteration 70
Iteration 80
Iteration 90
Iteration 100
Iteration 110
Iteration 120
Iteration 130
Iteration 140
Iteration 150
Iteration 160
Iteration 170
Iteration 180
Iteration 190
Iteration 200
Iteration 210
Iteration 220
Iteration 230
Iteration 240
Iteration 250
Iteration 260
Iteration 270
Iteration 280
Iteration 290
Displacement smoothed in = 1.73 s


Moving mesh ...

Iteration 0
Moving mesh using diplacement scaling : min:1  max:1
Checking faces in error :
    non-orthogonality >  65 degrees                        : 0
    faces with face pyramid volume < 1e-13                 : 298767
    faces with face-decomposition tet quality < 1e-30      : 0
    faces with concavity >  80 degrees                     : 0
    faces with skewness >   4 (internal) or  20 (boundary) : 0
    faces with interpolation weights (0..1)  <  0.05       : 0
    faces with volume ratio of neighbour cells <  0.01     : 0
    faces with face twist <  0.05                          : 0
    faces on cells with determinant < 0.001                : 0
Successfully moved mesh
Moved mesh in = 0.4 s



Morph iteration 5
-----------------
Calculating patchDisplacement as distance to nearest surface point ...
Wanted displacement : average:2.476750273094418e-06 min:1.568798025612971e-11 max:9.162568697350555e-06
Calculated surface displacement in = 0.01 s


Calculating patchDisplacement as distance to nearest surface point ...
Stringing feature edges : changed 0 points
Attraction:
     linear   : max:(7.619508264863515e-06 7.619486293521235e-06 7.20174340247421e-06) avg:(-1.306022192452115e-09 -5.494048493149352e-09 -2.305463675746967e-10)
     feature  : max:(0 0 0) avg:(0 0 0)
Feature analysis : total points:60154 attraction to :
    feature point   : 0
    feature edge    : 0
    nearest surface : 60154 (rest)

--> FOAM Warning : Displacement (3.744644307462882e-08 1.259306445312912e-08 -2.086731698528076e-07) at mesh point 49090 coord (-0.0003134420275913497 -0.001465936272699025 -0.004962357372398423) points through the surrounding patch faces
Smoothing displacement ...
Iteration 0
Iteration 10
Iteration 20
Iteration 30
Iteration 40
Iteration 50
Iteration 60
Iteration 70
Iteration 80
Iteration 90
Iteration 100
Iteration 110
Iteration 120
Iteration 130
Iteration 140
Iteration 150
Iteration 160
Iteration 170
Iteration 180
Iteration 190
Iteration 200
Iteration 210
Iteration 220
Iteration 230
Iteration 240
Iteration 250
Iteration 260
Iteration 270
Iteration 280
Iteration 290
Displacement smoothed in = 1.8 s


Moving mesh ...

Iteration 0
Moving mesh using diplacement scaling : min:1  max:1
Checking faces in error :
    non-orthogonality >  65 degrees                        : 0
    faces with face pyramid volume < 1e-13                 : 298767
    faces with face-decomposition tet quality < 1e-30      : 0
    faces with concavity >  80 degrees                     : 0
    faces with skewness >   4 (internal) or  20 (boundary) : 0
    faces with interpolation weights (0..1)  <  0.05       : 0
    faces with volume ratio of neighbour cells <  0.01     : 0
    faces with face twist <  0.05                          : 0
    faces on cells with determinant < 0.001                : 0
Successfully moved mesh
Moved mesh in = 0.39 s



Morph iteration 6
-----------------
Calculating patchDisplacement as distance to nearest surface point ...
Wanted displacement : average:1.479380285434106e-06 min:6.260739756486222e-11 max:7.432167143772705e-06
Calculated surface displacement in = 0.01 s


Calculating patchDisplacement as distance to nearest surface point ...
Stringing feature edges : changed 0 points
Attraction:
     linear   : max:(5.651958752107182e-06 5.319468656874099e-06 5.593724390228275e-06) avg:(-5.809911442359071e-10 -3.179326800554356e-09 -3.860340132488281e-10)
     feature  : max:(0 0 0) avg:(0 0 0)
Feature analysis : total points:60154 attraction to :
    feature point   : 0
    feature edge    : 0
    nearest surface : 60154 (rest)

--> FOAM Warning : Displacement (2.13761115689883e-09 -1.002116314280096e-10 8.847489809318031e-09) at mesh point 47579 coord (-0.0004001041754801004 -0.001374504724490782 -0.005000260253241943) points through the surrounding patch faces
Smoothing displacement ...
Iteration 0
Iteration 10
Iteration 20
Iteration 30
Iteration 40
Iteration 50
Iteration 60
Iteration 70
Iteration 80
Iteration 90
Iteration 100
Iteration 110
Iteration 120
Iteration 130
Iteration 140
Iteration 150
Iteration 160
Iteration 170
Iteration 180
Iteration 190
Iteration 200
Iteration 210
Iteration 220
Iteration 230
Iteration 240
Iteration 250
Iteration 260
Iteration 270
Iteration 280
Iteration 290
Displacement smoothed in = 1.76 s


Moving mesh ...

Iteration 0
Moving mesh using diplacement scaling : min:1  max:1
Checking faces in error :
    non-orthogonality >  65 degrees                        : 0
    faces with face pyramid volume < 1e-13                 : 298767
    faces with face-decomposition tet quality < 1e-30      : 0
    faces with concavity >  80 degrees                     : 0
    faces with skewness >   4 (internal) or  20 (boundary) : 0
    faces with interpolation weights (0..1)  <  0.05       : 0
    faces with volume ratio of neighbour cells <  0.01     : 0
    faces with face twist <  0.05                          : 0
    faces on cells with determinant < 0.001                : 0
Successfully moved mesh
Moved mesh in = 0.37 s



Morph iteration 7
-----------------
Calculating patchDisplacement as distance to nearest surface point ...
Wanted displacement : average:7.195301644214624e-07 min:7.662872598455693e-13 max:5.651605552144633e-06
Calculated surface displacement in = 0.01 s


Calculating patchDisplacement as distance to nearest surface point ...
Stringing feature edges : changed 0 points
Attraction:
     linear   : max:(3.961574527907479e-06 3.702214205900589e-06 4.023208781126636e-06) avg:(-2.023866438617956e-10 -1.482111908190572e-09 -3.019097749439834e-10)
     feature  : max:(0 0 0) avg:(0 0 0)
Feature analysis : total points:60154 attraction to :
    feature point   : 0
    feature edge    : 0
    nearest surface : 60154 (rest)

--> FOAM Warning : Displacement (6.625785904683696e-09 1.936769217788387e-08 1.090038370676834e-07) at mesh point 47579 coord (-0.0004001020378689435 -0.001374504824702414 -0.005000251405752134) points through the surrounding patch faces
Smoothing displacement ...
Iteration 0
Iteration 10
Iteration 20
Iteration 30
Iteration 40
Iteration 50
Iteration 60
Iteration 70
Iteration 80
Iteration 90
Iteration 100
Iteration 110
Iteration 120
Iteration 130
Iteration 140
Iteration 150
Iteration 160
Iteration 170
Iteration 180
Iteration 190
Iteration 200
Iteration 210
Iteration 220
Iteration 230
Iteration 240
Iteration 250
Iteration 260
Iteration 270
Iteration 280
Iteration 290
Displacement smoothed in = 1.79 s


Moving mesh ...

Iteration 0
Moving mesh using diplacement scaling : min:1  max:1
Checking faces in error :
    non-orthogonality >  65 degrees                        : 0
    faces with face pyramid volume < 1e-13                 : 298767
    faces with face-decomposition tet quality < 1e-30      : 0
    faces with concavity >  80 degrees                     : 0
    faces with skewness >   4 (internal) or  20 (boundary) : 0
    faces with interpolation weights (0..1)  <  0.05       : 0
    faces with volume ratio of neighbour cells <  0.01     : 0
    faces with face twist <  0.05                          : 0
    faces on cells with determinant < 0.001                : 0
Successfully moved mesh
Moved mesh in = 0.35 s



Morph iteration 8
-----------------
Calculating patchDisplacement as distance to nearest surface point ...
Wanted displacement : average:2.577697727566429e-07 min:2.402033960964988e-12 max:3.978212993826537e-06
Calculated surface displacement in = 0.02 s


Calculating patchDisplacement as distance to nearest surface point ...
Stringing feature edges : changed 0 points
Attraction:
     linear   : max:(2.470313209343954e-06 2.470282526585103e-06 2.619265250454125e-06) avg:(-3.307441166519327e-11 -5.258590263098347e-10 -1.790343455421269e-10)
     feature  : max:(0 0 0) avg:(0 0 0)
Feature analysis : total points:60154 attraction to :
    feature point   : 0
    feature edge    : 0
    nearest surface : 60154 (rest)

--> FOAM Warning : Displacement (1.108373366694174e-08 4.435360462871216e-08 4.264472453869828e-08) at mesh point 47574 coord (-0.0005002095821989223 -0.001373384165541006 -0.005000105045690161) points through the surrounding patch faces
Smoothing displacement ...
Iteration 0
Iteration 10
Iteration 20
Iteration 30
Iteration 40
Iteration 50
Iteration 60
Iteration 70
Iteration 80
Iteration 90
Iteration 100
Iteration 110
Iteration 120
Iteration 130
Iteration 140
Iteration 150
Iteration 160
Iteration 170
Iteration 180
Iteration 190
Iteration 200
Iteration 210
Iteration 220
Iteration 230
Iteration 240
Iteration 250
Iteration 260
Iteration 270
Iteration 280
Iteration 290
Displacement smoothed in = 1.83 s


Moving mesh ...

Iteration 0
Moving mesh using diplacement scaling : min:1  max:1
Checking faces in error :
    non-orthogonality >  65 degrees                        : 0
    faces with face pyramid volume < 1e-13                 : 298767
    faces with face-decomposition tet quality < 1e-30      : 0
    faces with concavity >  80 degrees                     : 0
    faces with skewness >   4 (internal) or  20 (boundary) : 0
    faces with interpolation weights (0..1)  <  0.05       : 0
    faces with volume ratio of neighbour cells <  0.01     : 0
    faces with face twist <  0.05                          : 0
    faces on cells with determinant < 0.001                : 0
Successfully moved mesh
Moved mesh in = 0.37 s



Morph iteration 9
-----------------
Calculating patchDisplacement as distance to nearest surface point ...
Wanted displacement : average:5.606169582572387e-08 min:7.538578268573298e-12 max:2.485942052652768e-06
Calculated surface displacement in = 0.01 s


Calculating patchDisplacement as distance to nearest surface point ...
Stringing feature edges : changed 0 points
Attraction:
     linear   : max:(1.921636056938019e-06 1.919583340879256e-06 1.496834208130661e-06) avg:(-2.562668423267537e-12 -1.331173032410785e-10 9.574782631067966e-11)
     feature  : max:(0 0 0) avg:(0 0 0)
Feature analysis : total points:60154 attraction to :
    feature point   : 0
    feature edge    : 0
    nearest surface : 60154 (rest)

--> FOAM Warning : Displacement (2.168404344971009e-19 -2.168404344971009e-19 6.251272433119986e-08) at mesh point 47574 coord (-0.0005001984984652553 -0.001373339811936377 -0.005000062400965622) points through the surrounding patch faces
Smoothing displacement ...
Iteration 0
Iteration 10
Iteration 20
Iteration 30
Iteration 40
Iteration 50
Iteration 60
Iteration 70
Iteration 80
Iteration 90
Iteration 100
Iteration 110
Iteration 120
Iteration 130
Iteration 140
Iteration 150
Iteration 160
Iteration 170
Iteration 180
Iteration 190
Iteration 200
Iteration 210
Iteration 220
Iteration 230
Iteration 240
Iteration 250
Iteration 260
Iteration 270
Iteration 280
Iteration 290
Displacement smoothed in = 1.69 s


Moving mesh ...

Iteration 0
Moving mesh using diplacement scaling : min:1  max:1
Checking faces in error :
    non-orthogonality >  65 degrees                        : 0
    faces with face pyramid volume < 1e-13                 : 298767
    faces with face-decomposition tet quality < 1e-30      : 0
    faces with concavity >  80 degrees                     : 0
    faces with skewness >   4 (internal) or  20 (boundary) : 0
    faces with interpolation weights (0..1)  <  0.05       : 0
    faces with volume ratio of neighbour cells <  0.01     : 0
    faces with face twist <  0.05                          : 0
    faces on cells with determinant < 0.001                : 0
Successfully moved mesh
Moved mesh in = 0.28 s


Repatching faces according to nearest surface ...
Repatched 0 faces in = 0.08 s


Edge intersection testing:
    Number of edges             : 473916
    Number of edges to retest   : 230602
    Number of intersected edges : 58470
Merging 15100 sets of faces.

Edge intersection testing:
    Number of edges             : 458474
    Number of edges to retest   : 60932
    Number of intersected edges : 43028

Undo iteration 0
----------------
Checking faces in error :
    non-orthogonality >  65 degrees                        : 0
    faces with face pyramid volume < 1e-13                 : 283325
    faces with face-decomposition tet quality < 1e-30      : 0
    faces with concavity >  80 degrees                     : 0
    faces with skewness >   4 (internal) or  20 (boundary) : 0
    faces with interpolation weights (0..1)  <  0.05       : 0
    faces with volume ratio of neighbour cells <  0.01     : 0
    faces with face twist <  0.05                          : 0
    faces on cells with determinant < 0.001                : 0
Masters that need to be restored:15100
Edge intersection testing:
    Number of edges             : 473916
    Number of edges to retest   : 76374
    Number of intersected edges : 58470


Undo iteration 1
----------------
Checking faces in error :
    non-orthogonality >  65 degrees                        : 0
    faces with face pyramid volume < 1e-13                 : 298767
    faces with face-decomposition tet quality < 1e-30      : 0
    faces with concavity >  80 degrees                     : 0
    faces with skewness >   4 (internal) or  20 (boundary) : 0
    faces with interpolation weights (0..1)  <  0.05       : 0
    faces with volume ratio of neighbour cells <  0.01     : 0
    faces with face twist <  0.05                          : 0
    faces on cells with determinant < 0.001                : 0
Masters that need to be restored:0

Merging all points on surface that
- are used by only two boundary faces and
- make an angle with a cosine of more than 0.8660254037844387.

No straight edges simplified and no points removed ...
Snapped mesh : cells:141304  faces:473916  points:192075
Cells per refinement level:
    0	61136
    1	74072
    2	6096
Writing mesh to time constant
Wrote mesh in = 2.18 s.
Mesh snapped in = 25.09 s.
Finished meshing in = 38.52 s.
End

Finalising parallel run
/*---------------------------------------------------------------------------*\
| =========                 |                                                 |
| \\      /  F ield         | OpenFOAM: The Open Source CFD Toolbox           |
|  \\    /   O peration     | Version:  2.1.1                                 |
|   \\  /    A nd           | Web:      www.OpenFOAM.org                      |
|    \\/     M anipulation  |                                                 |
\*---------------------------------------------------------------------------*/
Build  : 2.1.1-221db2718bbb
Exec   : reconstructParMesh -constant
Date   : Apr 10 2018
Time   : 13:33:10
Host   : "tom-VirtualBox"
PID    : 3391
Case   : /home/tom/GitHub/thrombus-code/SnappyHexSteadyLaminarTube
nProcs : 1
sigFpe : Enabling floating point exception trapping (FOAM_SIGFPE).
fileModificationChecking : Monitoring run-time modified files using timeStampMaster
allowSystemOperations : Disallowing user-supplied system call operations

// * * * * * * * * * * * * * * * * * * * * * * * * * * * * * * * * * * * * * //
Create time

This is an experimental tool which tries to merge individual processor
meshes back into one master mesh. Use it if the original master mesh has
been deleted or if the processor meshes have been modified (topology change).
This tool will write the resulting mesh to a new time step and construct
xxxxProcAddressing files in the processor meshes so reconstructPar can be
used to regenerate the fields on the master mesh.

Not well tested & use at your own risk!

Merge tolerance : 1e-07
Write tolerance : 1e-16
Doing geometric matching on correct procBoundaries only.
This assumes a correct decomposition.
Found 4 processor directories

Reading database "SnappyHexSteadyLaminarTube/processor0"
Reading database "SnappyHexSteadyLaminarTube/processor1"
Reading database "SnappyHexSteadyLaminarTube/processor2"
Reading database "SnappyHexSteadyLaminarTube/processor3"
Setting master time to constant

Reading points from "SnappyHexSteadyLaminarTube/processor0" for time = constant

Reading points from "SnappyHexSteadyLaminarTube/processor1" for time = constant

Reading points from "SnappyHexSteadyLaminarTube/processor2" for time = constant

Reading points from "SnappyHexSteadyLaminarTube/processor3" for time = constant

Overall mesh bounding box  : (-0.001499999409687121 -0.00149999907924877 -0.004999999888241291) (0.001499999078402401 0.001499999078246915 0.004999999888241291)
Relative tolerance         : 1e-07
Absolute matching distance : 1.086277935903922e-09

Constructing empty mesh to add to.

Reading mesh to add from "SnappyHexSteadyLaminarTube/processor0" for time = constant

Adding to master mesh


Reading mesh to add from "SnappyHexSteadyLaminarTube/processor1" for time = constant

Adding to master mesh


Reading mesh to add from "SnappyHexSteadyLaminarTube/processor2" for time = constant

Adding to master mesh


Reading mesh to add from "SnappyHexSteadyLaminarTube/processor3" for time = constant

Adding to master mesh


mergeSharedPoints : detected 0 points that are to be merged.

Writing merged mesh to "/home/tom/GitHub/thrombus-code/SnappyHexSteadyLaminarTube/constant"

Reconstructing the addressing from the processor meshes to the newly reconstructed mesh

Reading processor 0 mesh from "SnappyHexSteadyLaminarTube/processor0"
Writing pointProcAddressing to "SnappyHexSteadyLaminarTube/processor0/constant/polyMesh"
Writing faceProcAddressing to "SnappyHexSteadyLaminarTube/processor0/constant/polyMesh"
Writing cellProcAddressing to "SnappyHexSteadyLaminarTube/processor0/constant/polyMesh"
Writing boundaryProcAddressing to "SnappyHexSteadyLaminarTube/processor0/constant/polyMesh"

Reading processor 1 mesh from "SnappyHexSteadyLaminarTube/processor1"
Writing pointProcAddressing to "SnappyHexSteadyLaminarTube/processor1/constant/polyMesh"
Writing faceProcAddressing to "SnappyHexSteadyLaminarTube/processor1/constant/polyMesh"
Writing cellProcAddressing to "SnappyHexSteadyLaminarTube/processor1/constant/polyMesh"
Writing boundaryProcAddressing to "SnappyHexSteadyLaminarTube/processor1/constant/polyMesh"

Reading processor 2 mesh from "SnappyHexSteadyLaminarTube/processor2"
Writing pointProcAddressing to "SnappyHexSteadyLaminarTube/processor2/constant/polyMesh"
Writing faceProcAddressing to "SnappyHexSteadyLaminarTube/processor2/constant/polyMesh"
Writing cellProcAddressing to "SnappyHexSteadyLaminarTube/processor2/constant/polyMesh"
Writing boundaryProcAddressing to "SnappyHexSteadyLaminarTube/processor2/constant/polyMesh"

Reading processor 3 mesh from "SnappyHexSteadyLaminarTube/processor3"
Writing pointProcAddressing to "SnappyHexSteadyLaminarTube/processor3/constant/polyMesh"
Writing faceProcAddressing to "SnappyHexSteadyLaminarTube/processor3/constant/polyMesh"
Writing cellProcAddressing to "SnappyHexSteadyLaminarTube/processor3/constant/polyMesh"
Writing boundaryProcAddressing to "SnappyHexSteadyLaminarTube/processor3/constant/polyMesh"

End.

